powerfactory/powerfactory-converter/src/test/resources/MTDCVscLoss2.xiidm
<?xml version="1.0" encoding="UTF-8"?>
<iidm:network xmlns:iidm="http://www.powsybl.org/schema/iidm/1_18" id="MTDCVscLoss2" caseDate="2021-01-01T10:00:00.000+02:00" forecastDistance="0" sourceFormat="POWER-FACTORY" minimumValidationLevel="STEADY_STATE_HYPOTHESIS">
    <iidm:dcNode id="4 HVDC Link_T_DC_pos1" name="4 HVDC Link_T_DC_pos1" nominalV="320.0"/>
    <iidm:dcNode id="6 HVDC Link_T_DC_neg1" name="6 HVDC Link_T_DC_neg1" nominalV="320.0"/>
    <iidm:substation id="S12">
        <iidm:voltageLevel id="VL12" nominalV="165.0" topologyKind="NODE_BREAKER">
            <iidm:nodeBreakerTopology>
                <iidm:busbarSection id="VL12_2 Bus 2" node="0"/>
                <iidm:internalConnection node1="0" node2="1"/>
            </iidm:nodeBreakerTopology>
            <iidm:voltageSourceConverter id="HVDC Converter 1" dcNode1="4 HVDC Link_T_DC_pos1" dcConnected1="true" dcNode2="6 HVDC Link_T_DC_neg1" dcConnected2="true" idleLoss="0.0012339999675750732" switchingLoss="0.0" resistiveLoss="0.0" controlMode="P_PCC" targetP="-2718.0" localTargetQ="-3.140000104904175" node1="1">
                <iidm:pccTerminal id="HVDC Converter 1" number="ONE"/>
                <iidm:minMaxReactiveLimits minQ="-1.7976931348623157E308" maxQ="1.7976931348623157E308"/>
            </iidm:voltageSourceConverter>
        </iidm:voltageLevel>
    </iidm:substation>
</iidm:network>
